!-   ===========  ALL OBJECTS IN CLASS: VERSION ===========

Version,
    22.2;                     !- Version Identifier

!-   ===========  ALL OBJECTS IN CLASS: SIMULATIONCONTROL ===========

SimulationControl,
    Yes,                     !- Do Zone Sizing Calculation
    Yes,                     !- Do System Sizing Calculation
    Yes,                        !- Do Plant Sizing Calculation
    No,                     !- Run Simulation for Sizing Periods
    Yes;                     !- Run Simulation for Weather File Run Periods

!-   ===========  ALL OBJECTS IN CLASS: BUILDING ===========

Building,
    {run_label},                !- Name
    {bldg_orient},      	    !- North Axis {{deg}}
    Suburbs,                 	!- Terrain
    0.05,                    	!- Loads Convergence Tolerance Value, Note: originally 0.04
    0.05,                     	!- Temperature Convergence Tolerance Value {{deltaC}}
    FullInteriorAndExteriorWithReflections,    !- Solar Distribution
    25,                      	!- Maximum Number of Warmup Days
    3;                      	!- Minimum Number of Warmup Days

!-   ===========  ALL OBJECTS IN CLASS: SHADOWCALCULATION ===========

ShadowCalculation,
    PolygonClipping,         !- Shading Calculation Method
    Periodic,                !- Shading Calculation Update Frequency Method
    20,                      !- Shading Calculation Update Frequency
    15000,                   !- Maximum Figures in Shadow Overlap Calculations
    SutherlandHodgman,       !- Polygon Clipping Algorithm
    512,                     !- Pixel Counting Resolution
    SimpleSkyDiffuseModeling,!- Sky Diffuse Modeling Algorithm
    No,                      !- Output External Shading Calculation Results
    No,                      !- Disable Self-Shading Within Shading Zone Groups
    No;                      !- Disable Self-Shading From Shading Zone Groups to Other Zones

!-   ===========  ALL OBJECTS IN CLASS: SURFACECONVECTIONALGORITHM:INSIDE ===========

SurfaceConvectionAlgorithm:Inside,
    TARP;                  !- Algorithm

!-   ===========  ALL OBJECTS IN CLASS: SURFACECONVECTIONALGORITHM:OUTSIDE ===========

SurfaceConvectionAlgorithm:Outside,
    DOE-2;                  !- Algorithm

HeatBalanceAlgorithm,
   ConductionTransferFunction,   !- Algorithm
   200;                          !- Surface Temperature Upper Limit {{degC}}

!-   ===========  ALL OBJECTS IN CLASS: TIMESTEP ===========

Timestep,
    {timestep};                       !- Number of Timesteps per Hour

!-   ===========  ALL OBJECTS IN CLASS: RUNPERIOD ===========

RunPeriod,
    {sim_type},                  !- Name
    {begin_mo},                       !- Begin Month
    {begin_day},                       !- Begin Day of Month
    ,                        !- Begin Year
    {end_mo},                      !- End Month
    {end_day},                      !- End Day of Month
    ,                        !- End Year
    Sunday,                  !- Day of Week for Start Day
    Yes,                     !- Use Weather File Holidays and Special Days
    Yes,                     !- Use Weather File Daylight Saving Period
    No,                      !- Apply Weekend Holiday Rule
    Yes,                     !- Use Weather File Rain Indicators
    Yes,                     !- Use Weather File Snow Indicators
    ;                        !- Treat Weather as Actual

!-   ===========  ALL OBJECTS IN CLASS: SIZINGPERIOD:WEATHERFILECONDITIONTYPE ===========

SizingPeriod:WeatherFileConditionType,
    Extreme_Winter,          !- Name
    WinterExtreme;           !- Period Selection

SizingPeriod:WeatherFileConditionType,
    Extreme_Summer,          !- Name
    SummerExtreme;           !- Period Selection

 Site:WaterMainsTemperature,
     CorrelationFromWeatherFile,    !- Calculation method
     , 	            !- Temperature schedule name (can be MainsWaterTemp if schedule is used)
     ,                              !- Annual average outdoor air temperature {{C}}
     ;	                            !- Maximum difference in monthly average outdoor air temperatures {{C}}

